<?xml version="1.0" encoding="UTF-8"?>

<!-- generated on 2024-10-31 21:39:36 by Eclipse SUMO polyconvert Version 1.21.0
<polyconvertConfiguration xmlns:xsi="http://www.w3.org/2001/XMLSchema-instance" xsi:noNamespaceSchemaLocation="http://sumo.dlr.de/xsd/polyconvertConfiguration.xsd">

    <input>
        <net-file value="ka_muelburgertor.net.xml"/>
        <osm-files value="kit_muelburgertor.osm"/>
    </input>

    <output>
        <output-file value="ka_muelburgertor.poly.xml"/>
    </output>

</polyconvertConfiguration>
-->

<additional xmlns:xsi="http://www.w3.org/2001/XMLSchema-instance" xsi:noNamespaceSchemaLocation="http://sumo.dlr.de/xsd/additional_file.xsd">
    <location netOffset="-454056.09,-5427963.23" convBoundary="-1190.71,-924.72,5338.68,1663.76" origBoundary="8.355408,48.994652,8.444808,49.017994" projParameter="+proj=utm +zone=32 +ellps=WGS84 +datum=WGS84 +units=m +no_defs"/>

    <poly id="1001201125" type="traffic_sign" color="black" fill="0" layer="0.00" shape="1075.686275,892.315469 1075.759367,893.215370 1075.857363,894.481937 1076.386508,901.136853 1081.817658,906.262443"/>
    <poly id="1001201130" type="amenity" color="237,199,199" fill="1" layer="-1.00" shape="1081.029087,856.652823 1082.829543,858.639364 1108.682924,857.018585 1110.668089,854.712410 1081.029087,856.652823"/>
    <poly id="1012825273" type="amenity" color="237,199,199" fill="0" layer="-1.00" shape="917.900381,872.592839 913.698874,873.027142 909.796913,873.425667"/>
    <poly id="1012825280" type="building" color="255,230,230" fill="1" layer="-1.00" shape="1638.572994,774.198570 1638.760353,776.598382 1641.574160,776.375814 1641.484137,775.175879 1641.386890,773.987118 1638.572994,774.198570"/>
    <poly id="1014453252" type="leisure" color="207,245,201" fill="1" layer="-2.00" shape="882.864767,743.951123 891.664580,743.290481 890.967743,734.024403 882.175228,734.684986 882.864767,743.951123"/>
    <poly id="1014453252#1" type="sport" color="79,230,125" fill="1" layer="-2.00" shape="882.864767,743.951123 891.664580,743.290481 890.967743,734.024403 882.175228,734.684986 882.864767,743.951123"/>
    <poly id="1014453253" type="building" color="255,230,230" fill="1" layer="-1.00" shape="889.926178,712.020826 892.702527,711.687011 891.963964,705.389560 889.187522,705.712259 889.926178,712.020826"/>
    <poly id="1020263268" type="amenity" color="237,199,199" fill="1" layer="-1.00" shape="1636.341207,303.993746 1637.751887,303.882433 1649.848669,302.929881 1650.395961,310.107198 1641.317657,310.791083 1636.880849,311.126655 1636.341207,303.993746"/>
    <poly id="1037075846" type="amenity" color="237,199,199" fill="1" layer="-1.00" shape="1656.453651,315.839791 1655.936448,304.182018 1654.020880,304.264004 1654.538087,315.921776 1656.453651,315.839791"/>
    <poly id="1044475464" type="leisure" color="207,245,201" fill="1" layer="-2.00" shape="1536.122723,478.066621 1544.712072,485.779931 1543.714509,487.244258 1534.671835,479.545694 1536.122723,478.066621"/>
    <poly id="1056385632" type="traffic_sign" color="black" fill="0" layer="0.00" shape="1162.081763,856.832081 1162.456890,861.631677"/>
    <poly id="1058000349" type="landuse" color="194,194,130" fill="1" layer="-3.00" shape="450.072976,556.621372 448.807125,538.699708 427.814497,540.150276 419.378683,524.588673 406.473728,530.364292 398.225028,516.224187 394.055586,504.551989 413.557602,497.010180 386.399366,440.524176 358.793190,384.775715 382.135688,371.932717 410.686368,427.829184 424.856595,455.917298 486.249456,426.687397 498.950362,452.230773 481.142121,461.225875 462.781987,484.978074 490.731975,554.320554 450.072976,556.621372"/>
    <poly id="1060310249" type="amenity" color="237,199,199" fill="1" layer="-1.00" shape="1530.608000,397.589121 1539.117872,392.607258 1539.680615,393.469896 1531.001383,398.308589 1530.608000,397.589121"/>
    <poly id="1060310250" type="amenity" color="237,199,199" fill="1" layer="-1.00" shape="1556.594259,383.951746 1545.203449,389.934933 1545.597008,390.676635 1556.987817,384.693449 1556.594259,383.951746"/>
    <poly id="1064124946" type="leisure" color="207,245,201" fill="1" layer="-2.00" shape="1314.267172,773.105756 1314.839713,783.373424 1308.999774,782.875640 1306.140192,781.042068 1304.560228,773.728555 1314.267172,773.105756"/>
    <poly id="1064124947" type="leisure" color="207,245,201" fill="1" layer="-2.00" shape="1313.659976,764.895045 1314.267172,773.105756 1304.560228,773.728555 1304.194447,770.985554 1305.308702,768.586400 1307.980932,766.219186 1309.939392,765.125071 1313.659976,764.895045"/>
    <poly id="1065457371" type="amenity" color="237,199,199" fill="1" layer="-1.00" shape="1712.366539,535.069077 1713.308495,536.718029 1709.369761,538.961729 1708.427893,537.323894 1712.366539,535.069077"/>
    <poly id="1065457372" type="amenity" color="237,199,199" fill="1" layer="-1.00" shape="1721.512150,530.026841 1722.469881,531.820191 1719.003301,533.659905 1718.045569,531.866555 1721.512150,530.026841"/>
    <poly id="1065462665" type="traffic_sign" color="black" fill="0" layer="0.00" shape="1676.154247,325.576933 1677.791369,325.430472 1677.568421,330.490557 1681.379904,330.615806"/>
    <poly id="1065462666" type="traffic_sign" color="black" fill="0" layer="0.00" shape="1669.993990,331.740496 1671.936584,329.546040 1674.696412,327.111609 1676.154247,325.576933"/>
    <poly id="1069534688" type="amenity" color="237,199,199" fill="1" layer="-1.00" shape="1311.975928,649.134327 1312.214191,652.389743 1313.902578,652.264996 1313.664316,649.009579 1311.975928,649.134327"/>
    <poly id="107155935" type="building" color="255,230,230" fill="1" layer="-1.00" shape="1386.058261,919.431343 1389.710108,907.917985 1374.702277,903.180270 1371.007295,914.782922 1372.312323,915.194895 1375.288898,916.127070 1377.363796,916.788557 1377.923573,918.195944 1379.836523,918.725326 1380.310500,918.554763 1380.633496,917.796202 1386.058261,919.431343"/>
    <poly id="107156244" type="building" color="255,230,230" fill="1" layer="-1.00" shape="1370.790496,924.212029 1370.964910,922.254005 1371.260164,920.773050 1372.312323,915.194895 1371.007295,914.782922 1361.803963,911.610622 1361.233526,923.443881 1370.790496,924.212029"/>
    <poly id="107184394" type="building" color="255,230,230" fill="1" layer="-1.00" shape="1323.891348,900.464581 1324.073869,909.523614 1324.201751,925.431268 1330.943917,925.377071 1330.816054,909.469417 1330.774773,904.333613 1331.171679,902.762901 1335.251816,889.956470 1328.499318,887.820660 1321.636856,885.652390 1317.556747,898.458831 1323.891348,900.464581"/>
    <poly id="107184396" type="building" color="255,230,230" fill="1" layer="-1.00" shape="1299.312040,898.627785 1299.780779,920.535975 1304.774714,920.429105 1304.306085,898.532032 1304.281677,895.497239 1304.487108,893.761307 1308.390187,881.678897 1294.745755,877.352884 1291.023818,889.222621 1300.160790,892.317518 1299.283179,895.948777 1299.312040,898.627785"/>
    <poly id="107184397" type="building" color="255,230,230" fill="1" layer="-1.00" shape="1317.556747,898.458831 1321.636856,885.652390 1308.390187,881.678897 1304.487108,893.761307 1304.281677,895.497239 1304.306085,898.532032 1304.774714,920.429105 1304.857462,924.352804 1311.701289,924.208829 1311.157167,898.376882 1311.544699,896.550548 1317.556747,898.458831"/>
    <poly id="107184398" type="building" color="255,230,230" fill="1" layer="-1.00" shape="1291.023818,889.222621 1294.745755,877.352884 1280.060407,872.724001 1276.185470,884.661682 1284.477037,887.207498 1291.023818,889.222621"/>
    <poly id="107184399" type="building" color="255,230,230" fill="1" layer="-1.00" shape="1330.816054,909.469417 1330.943917,925.377071 1337.415518,925.325058 1337.287674,909.417403 1335.532658,909.431508 1335.504756,904.139956 1345.138576,907.186464 1349.211340,894.368987 1335.251816,889.956470 1331.171679,902.762901 1330.774773,904.333613 1330.816054,909.469417"/>
    <poly id="108982633" type="building" color="255,230,230" fill="1" layer="-1.00" shape="1749.740133,908.185791 1757.512899,911.736986 1763.804384,900.080583 1742.486925,889.066437 1731.846533,883.570365 1736.364634,900.843806 1749.740133,908.185791"/>
    <poly id="108994118" type="building" color="255,230,230" fill="1" layer="-1.00" shape="1721.831186,837.202631 1721.222130,826.846285 1734.663225,825.872074 1734.775945,829.006217 1735.222396,836.395576 1721.831186,837.202631"/>
    <poly id="108994164" type="building" color="255,230,230" fill="1" layer="-1.00" shape="1737.638675,845.948210 1736.966177,845.986918 1735.996541,828.918675 1745.214274,828.400580 1745.239310,828.789482 1746.183794,845.457708 1737.638675,845.948210"/>
    <poly id="108994173" type="building" color="255,230,230" fill="1" layer="-1.00" shape="1745.190619,864.920656 1738.404454,861.294917 1736.842936,864.486863 1734.449370,863.294156 1734.043978,853.714388 1738.063714,853.404443 1737.740770,847.748378 1735.986532,847.862404 1722.713504,848.813040 1724.005858,866.912607 1740.071821,875.066924 1745.190619,864.920656"/>
    <poly id="108994178" type="building" color="255,230,230" fill="1" layer="-1.00" shape="1741.582716,815.011081 1741.053355,807.311102 1750.657635,806.656532 1750.476045,804.056562 1750.253731,800.934409 1747.841601,801.087020 1745.692728,801.237537 1745.833331,803.281976 1740.936211,803.621136 1740.788028,801.543406 1734.151723,802.052063 1730.474850,802.259225 1731.135486,811.748022 1734.840984,811.462812 1735.128536,815.429350 1741.582716,815.011081"/>
    <poly id="108994184" type="building" color="255,230,230" fill="1" layer="-1.00" shape="1722.713504,848.813040 1721.831186,837.202631 1735.222396,836.395576 1735.986532,847.862404 1722.713504,848.813040"/>
    <poly id="108994192" type="building" color="255,230,230" fill="1" layer="-1.00" shape="1734.151723,802.052063 1730.474850,802.259225 1731.135486,811.748022 1734.840984,811.462812 1735.128536,815.429350 1735.883821,825.784532 1734.663225,825.872074 1721.222130,826.846285 1720.860959,821.902024 1719.628710,821.444921 1719.409617,817.811353 1720.491679,816.857773 1719.933392,809.202494 1718.668916,809.290389 1718.159816,802.301749 1719.416892,802.202795 1718.800594,793.691957 1720.655024,791.464866 1733.314186,790.552469 1734.085961,801.140980 1734.151723,802.052063"/>
    <poly id="108994216" type="building" color="255,230,230" fill="1" layer="-1.00" shape="1751.202317,814.445328 1741.582716,815.011081 1735.128536,815.429350 1735.883821,825.784532 1734.663225,825.872074 1734.775945,829.006217 1735.996541,828.918675 1745.214274,828.400580 1752.121648,827.956481 1751.351027,816.589757 1751.202317,814.445328"/>
    <poly id="109107544" type="building" color="255,230,230" fill="1" layer="-1.00" shape="1744.096573,681.607334 1743.843578,682.898940 1750.451107,684.269326 1755.497671,688.909474 1756.130084,688.426402 1758.266739,690.410482 1754.535746,692.096640 1753.637351,690.402867 1746.037345,694.810187 1751.007787,704.587066 1771.008555,693.421874 1769.084537,689.668468 1772.397760,686.029024 1755.318364,670.978919 1754.766833,671.516934 1746.563314,669.936907 1744.096573,681.607334"/>
    <poly id="109107551" type="building" color="255,230,230" fill="1" layer="-1.00" shape="1710.216953,685.657049 1710.531250,690.223698 1710.688354,692.501465 1710.838145,694.779290 1711.152442,699.345939 1711.227293,700.479294 1711.309545,701.623706 1711.384485,702.768177 1711.459336,703.901531 1711.616528,706.190414 1711.773631,708.468181 1717.856752,708.275187 1721.210024,706.914411 1722.719352,706.346528 1726.749355,704.557912 1726.847764,702.222524 1722.563594,702.401176 1722.181000,692.932401 1723.928239,692.851778 1724.173596,698.864209 1726.703218,698.766237 1726.639454,697.188108 1726.229792,687.074753 1721.907857,686.186459 1720.853035,685.972519 1718.875287,685.576941 1716.275237,685.097385 1710.216953,685.657049"/>
    <poly id="109107553" type="building" color="255,230,230" fill="1" layer="-1.00" shape="1746.037345,694.810187 1743.597005,688.670710 1743.843578,682.898940 1750.451107,684.269326 1755.497671,688.909474 1756.130084,688.426402 1758.266739,690.410482 1754.535746,692.096640 1753.637351,690.402867 1746.037345,694.810187"/>
    <poly id="109107561" type="building" color="255,230,230" fill="1" layer="-1.00" shape="1722.336574,672.986971 1721.724797,676.060182 1727.650560,677.224746 1727.432628,678.327081 1731.673684,679.160438 1734.255811,667.288977 1724.007734,665.191644 1722.336574,672.986971"/>
    <poly id="109107567" type="building" color="255,230,230" fill="1" layer="-1.00" shape="1731.673684,679.160438 1744.096573,681.607334 1746.563314,669.936907 1734.255811,667.288977 1731.673684,679.160438"/>
    <poly id="109107575" type="building" color="255,230,230" fill="1" layer="-1.00" shape="1711.773631,708.468181 1712.129549,711.833845 1712.279743,713.244528 1712.896116,719.009425 1713.062175,720.575622 1713.929604,721.135685 1714.973515,721.816631 1716.517265,722.815992 1718.329209,721.678722 1731.325957,713.548593 1729.550300,710.060830 1726.749355,704.557912 1722.719352,706.346528 1721.210024,706.914411 1722.325281,709.206778 1725.203435,708.794749 1726.651220,711.518038 1721.989257,713.845313 1717.953894,709.452832 1717.856752,708.275187 1711.773631,708.468181"/>
    <poly id="109107580" type="building" color="255,230,230" fill="1" layer="-1.00" shape="1724.806215,729.620361 1733.860077,725.034673 1734.126968,725.488351 1739.187903,735.609132 1739.256125,738.665809 1736.388132,739.433500 1735.996128,738.880763 1730.736573,741.468486 1724.806215,729.620361"/>
    <poly id="109107581" type="building" color="255,230,230" fill="1" layer="-1.00" shape="1726.749355,704.557912 1732.649285,701.564868 1736.109247,699.825268 1741.079703,709.602139 1731.719823,714.334775 1731.325957,713.548593 1729.550300,710.060830 1726.749355,704.557912"/>
    <poly id="109107584" type="building" color="255,230,230" fill="1" layer="-1.00" shape="1736.109247,699.825268 1736.218603,688.762820 1726.229792,687.074753 1726.639454,697.188108 1731.027513,697.197623 1731.077270,698.853684 1732.649285,701.564868 1736.109247,699.825268"/>
    <poly id="109107585" type="building" color="255,230,230" fill="1" layer="-1.00" shape="1710.216953,685.657049 1708.710825,664.602027 1711.173860,662.570193 1724.007734,665.191644 1722.336574,672.986971 1719.142935,672.356502 1717.652391,679.872463 1721.959352,680.716404 1720.853035,685.972519 1718.875287,685.576941 1716.275237,685.097385 1710.216953,685.657049"/>
    <poly id="109107590" type="building" color="255,230,230" fill="1" layer="-1.00" shape="1743.597005,688.670710 1736.218603,688.762820 1726.229792,687.074753 1721.907857,686.186459 1720.853035,685.972519 1721.959352,680.716404 1717.652391,679.872463 1719.142935,672.356502 1722.336574,672.986971 1721.724797,676.060182 1727.650560,677.224746 1727.432628,678.327081 1731.673684,679.160438 1744.096573,681.607334 1743.843578,682.898940 1743.597005,688.670710"/>
    <poly id="109107593" type="building" color="255,230,230" fill="1" layer="-1.00" shape="1736.109247,699.825268 1736.218603,688.762820 1743.597005,688.670710 1746.037345,694.810187 1736.109247,699.825268"/>
    <poly id="109107596" type="building" color="255,230,230" fill="1" layer="-1.00" shape="1736.109247,699.825268 1746.037345,694.810187 1751.007787,704.587066 1741.079703,709.602139 1736.109247,699.825268"/>
    <poly id="109149492" type="building" color="255,230,230" fill="1" layer="-1.00" shape="1720.096774,549.737725 1721.210975,549.139639 1721.560444,549.859470 1724.014044,548.472513 1723.626593,547.575110 1726.910606,545.770204 1725.463134,543.091382 1721.865191,544.965492 1718.514653,546.681993 1720.096774,549.737725"/>
    <poly id="109149502" type="building" color="255,230,230" fill="1" layer="-1.00" shape="1736.833992,625.534618 1746.152626,613.765159 1735.360978,604.034642 1741.996382,594.198698 1753.349984,603.780232 1754.032117,601.273440 1758.750997,606.082958 1757.622304,610.372050 1754.699398,612.518695 1757.794086,617.252205 1753.256294,620.490071 1749.465459,615.584231 1745.945266,619.870131 1748.689345,623.739289 1744.944249,626.414993 1741.009020,629.092213 1736.833992,625.534618"/>
    <poly id="109149503" type="building" color="255,230,230" fill="1" layer="-1.00" shape="1721.865191,544.965492 1725.463134,543.091382 1727.072764,542.255890 1730.796664,546.095000 1738.179494,539.188032 1729.345502,530.097848 1717.496837,536.428963 1721.865191,544.965492"/>
    <poly id="109149509" type="building" color="255,230,230" fill="1" layer="-1.00" shape="1717.214765,624.946049 1703.972499,614.223456 1703.155995,598.032258 1715.350844,597.534861 1715.876928,605.735135 1720.293565,604.732754 1721.844823,607.588623 1718.847155,610.447381 1722.057566,613.178860 1724.988223,615.679110 1717.214765,624.946049"/>
    <poly id="109149511" type="building" color="255,230,230" fill="1" layer="-1.00" shape="1713.351680,555.905904 1700.736040,556.840227 1700.116416,547.918085 1701.180582,545.630585 1717.496837,536.428963 1721.865191,544.965492 1718.514653,546.681993 1720.096774,549.737725 1718.457895,550.573452 1715.158376,552.267314 1713.351680,555.905904"/>
    <poly id="109149512" type="building" color="255,230,230" fill="1" layer="-1.00" shape="1748.660441,584.284716 1741.996382,594.198698 1735.360978,604.034642 1724.988223,615.679110 1722.057566,613.178860 1730.080487,604.009996 1728.439159,602.700127 1720.293565,604.732754 1715.876928,605.735135 1715.350844,597.534861 1714.787608,583.754069 1713.098750,583.823111 1712.591312,577.045686 1714.316472,576.943003 1714.131051,573.865027 1712.457081,573.967302 1712.203854,569.722564 1716.055950,569.458411 1715.133075,558.270783 1722.376474,557.735036 1718.457895,550.573452 1720.096774,549.737725 1721.210975,549.139639 1721.560444,549.859470 1724.014044,548.472513 1726.303364,550.333077 1730.796664,546.095000 1733.032436,548.578554 1732.475565,550.283915 1732.297822,551.841733 1732.448810,553.352464 1733.176820,554.769663 1751.508433,573.645153 1743.647368,580.189047 1748.660441,584.284716"/>
    <poly id="109149517" type="building" color="255,230,230" fill="1" layer="-1.00" shape="1730.796664,546.095000 1733.032436,548.578554 1732.475565,550.283915 1732.297822,551.841733 1732.448810,553.352464 1733.176820,554.769663 1751.508433,573.645153 1761.976631,563.867661 1738.179494,539.188032 1730.796664,546.095000"/>
    <poly id="109149526" type="building" color="255,230,230" fill="1" layer="-1.00" shape="1728.987134,634.768774 1717.214765,624.946049 1724.988223,615.679110 1736.833992,625.534618 1728.987134,634.768774"/>
    <poly id="109149529" type="building" color="255,230,230" fill="1" layer="-1.00" shape="1702.592729,584.251466 1703.155995,598.032258 1715.350844,597.534861 1714.787608,583.754069 1713.098750,583.823111 1702.592729,584.251466"/>
    <poly id="109149536" type="building" color="255,230,230" fill="1" layer="-1.00" shape="1751.508433,573.645153 1743.647368,580.189047 1748.660441,584.284716 1755.674438,577.903212 1753.079377,575.300221 1751.872732,575.309827 1752.091028,574.251959 1751.508433,573.645153"/>
    <poly id="109149538" type="building" color="255,230,230" fill="1" layer="-1.00" shape="1744.944249,626.414993 1741.009020,629.092213 1736.833992,625.534618 1728.987134,634.768774 1732.654292,637.919073 1732.139591,638.490148 1735.741106,641.663206 1736.488316,640.901288 1740.280670,644.161767 1751.315293,635.736034 1744.944249,626.414993"/>
    <poly id="109149540" type="building" color="255,230,230" fill="1" layer="-1.00" shape="1752.396118,528.057731 1743.153459,532.856111 1736.383414,525.795040 1753.798428,516.796002 1758.140819,524.832493 1752.396118,528.057731"/>
    <poly id="109149555" type="building" color="255,230,230" fill="1" layer="-1.00" shape="1701.669972,570.329017 1702.592729,584.251466 1713.098750,583.823111 1712.591312,577.045686 1714.316472,576.943003 1714.131051,573.865027 1712.457081,573.967302 1712.203854,569.722564 1701.669972,570.329017"/>
    <poly id="109164702" type="building" color="255,230,230" fill="1" layer="-1.00" shape="1727.409821,408.280320 1722.499785,411.632344 1717.414275,415.908494 1711.698710,416.376485 1707.393708,416.722069 1706.833791,407.032368 1701.599471,407.318660 1689.552242,408.037247 1689.273774,403.381377 1694.412847,403.073599 1701.313700,402.662848 1706.635783,402.375857 1715.257435,399.472284 1718.248347,396.669166 1727.409821,408.280320"/>
    <poly id="109164706" type="building" color="255,230,230" fill="1" layer="-1.00" shape="1708.631419,471.086232 1715.337769,467.386367 1718.187768,473.522567 1716.935488,474.232925 1721.305153,485.682139 1723.528747,484.797287 1725.824275,489.270333 1729.009539,496.182069 1725.513771,498.033128 1723.489805,493.680207 1721.793023,494.594214 1720.482714,491.691957 1722.035005,491.001444 1720.524849,487.800615 1716.210009,489.658205 1708.631419,471.086232"/>
    <poly id="109164708" type="amenity" color="237,199,199" fill="1" layer="-1.00" shape="1691.676264,443.283944 1691.145438,434.494502 1700.582865,433.930123 1701.106274,442.708508 1691.676264,443.283944"/>
    <poly id="109164708#1" type="building" color="255,230,230" fill="1" layer="-1.00" shape="1691.676264,443.283944 1691.145438,434.494502 1700.582865,433.930123 1701.106274,442.708508 1691.676264,443.283944"/>
    <poly id="109164710" type="building" color="255,230,230" fill="1" layer="-1.00" shape="1739.635277,490.561100 1743.298549,488.619779 1747.340601,486.486453 1752.827296,496.781730 1745.114758,500.867544 1739.635277,490.561100"/>
    <poly id="109164711" type="building" color="255,230,230" fill="1" layer="-1.00" shape="1712.103709,505.755219 1713.625768,504.942656 1712.237404,502.341186 1714.815523,500.975467 1714.251225,499.912716 1716.771018,498.569698 1717.402109,499.754206 1719.710797,498.535160 1720.779913,500.538848 1726.259420,510.845274 1717.323284,515.563436 1712.103709,505.755219"/>
    <poly id="109164714" type="building" color="255,230,230" fill="1" layer="-1.00" shape="1703.990833,420.139920 1710.066424,419.880279 1710.222914,422.080229 1713.205195,421.867475 1714.118929,424.561664 1704.090444,425.297488 1702.409117,425.399824 1702.104734,420.243889 1703.990833,420.139920"/>
    <poly id="109164715" type="building" color="255,230,230" fill="1" layer="-1.00" shape="1720.779913,500.538848 1725.513771,498.033128 1729.009539,496.182069 1734.496348,506.488445 1726.259420,510.845274 1720.779913,500.538848"/>
    <poly id="109164718" type="building" color="255,230,230" fill="1" layer="-1.00" shape="1693.488295,473.341417 1692.678922,459.884988 1703.359010,459.244004 1704.411662,459.180029 1705.221007,472.636460 1702.413914,472.803354 1693.488295,473.341417"/>
    <poly id="109164720" type="building" color="255,230,230" fill="1" layer="-1.00" shape="1726.958295,479.222505 1725.775850,476.763915 1722.897701,478.109784 1720.349674,472.237987 1718.187768,473.522567 1716.935488,474.232925 1721.305153,485.682139 1723.528747,484.797287 1721.968816,481.774729 1726.958295,479.222505"/>
    <poly id="109164725" type="building" color="255,230,230" fill="1" layer="-1.00" shape="1718.248347,396.669166 1727.006609,389.795698 1727.612405,390.557956 1729.131399,389.356322 1730.734753,391.400226 1731.563328,390.748832 1733.499141,393.212541 1732.656028,393.875168 1737.672619,400.227583 1727.409821,408.280320 1718.248347,396.669166"/>
    <poly id="109164728" type="building" color="255,230,230" fill="1" layer="-1.00" shape="1750.375388,413.867249 1743.453425,405.195390 1734.441064,412.304316 1737.876411,416.634885 1741.311664,420.954339 1750.375388,413.867249"/>
    <poly id="109164730" type="building" color="255,230,230" fill="1" layer="-1.00" shape="1736.700668,466.449117 1735.695704,466.990744 1733.931325,463.091555 1733.432668,462.006045 1732.395777,459.457357 1738.072595,455.965828 1739.892468,459.486593 1741.943915,463.616958 1736.700668,466.449117"/>
    <poly id="109164731" type="building" color="255,230,230" fill="1" layer="-1.00" shape="1732.476235,494.353478 1729.933626,489.159781 1728.446549,487.937621 1725.824275,489.270333 1729.009539,496.182069 1732.476235,494.353478"/>
    <poly id="109164733" type="building" color="255,230,230" fill="1" layer="-1.00" shape="1689.273774,403.381377 1688.218824,395.819002 1688.040562,393.641460 1687.643574,388.797544 1687.335982,385.075748 1687.206208,383.475911 1691.051208,383.222916 1694.987027,382.435576 1698.846702,381.270862 1702.849987,379.771492 1706.705148,378.039845 1710.593866,375.929949 1713.984665,373.746204 1716.209594,372.105372 1717.132875,373.243084 1722.709472,380.113531 1723.286459,380.931604 1720.359052,383.445167 1721.955806,385.578059 1725.842098,382.245306 1716.041048,370.227915 1713.417608,372.338843 1711.809790,373.407783 1710.055619,374.466773 1708.315809,375.492298 1706.327614,376.553154 1704.586388,377.400817 1702.363196,378.341258 1698.629970,379.771773 1696.616561,380.421499 1694.733905,380.959012 1692.755556,381.419467 1690.937302,381.778593 1688.920438,381.994780 1685.236064,382.213145 1685.326968,383.524245 1686.773713,403.534714 1689.273774,403.381377"/>
    <poly id="109164738" type="building" color="255,230,230" fill="1" layer="-1.00" shape="1692.257525,452.895654 1692.678922,459.884988 1703.359010,459.244004 1702.937627,452.254669 1701.687607,452.331334 1692.257525,452.895654"/>
    <poly id="109164742" type="building" color="255,230,230" fill="1" layer="-1.00" shape="1723.528747,484.797287 1721.968816,481.774729 1726.958295,479.222505 1728.757466,478.307685 1731.437896,476.930042 1735.293434,484.436770 1728.446549,487.937621 1725.824275,489.270333 1723.528747,484.797287"/>
    <poly id="109164746" type="building" color="255,230,230" fill="1" layer="-1.00" shape="1761.731436,428.306980 1750.375388,413.867249 1741.311664,420.954339 1739.799900,422.144795 1742.939965,426.133086 1744.342827,425.043552 1750.586110,432.987083 1749.423168,433.896831 1751.388477,436.393662 1752.863938,435.236849 1761.731436,428.306980"/>
    <poly id="109164753" type="building" color="255,230,230" fill="1" layer="-1.00" shape="1729.478768,463.271541 1727.672594,458.716774 1715.190823,463.629938 1714.571343,462.067354 1713.531520,459.151826 1722.527350,455.489315 1719.540942,446.919542 1720.862058,446.586619 1718.492379,439.234821 1724.855571,437.438737 1729.224999,451.611662 1732.395777,459.457357 1733.432668,462.006045 1733.931325,463.091555 1729.478768,463.271541"/>
    <poly id="109164756" type="building" color="255,230,230" fill="1" layer="-1.00" shape="1746.976994,450.002833 1738.072595,455.965828 1739.892468,459.486593 1742.241251,457.789199 1747.671465,454.555339 1749.016258,453.521854 1746.976994,450.002833"/>
    <poly id="109164761" type="building" color="255,230,230" fill="1" layer="-1.00" shape="1713.205195,421.867475 1714.118929,424.561664 1720.351952,423.867211 1717.414275,415.908494 1711.698710,416.376485 1713.205195,421.867475"/>
    <poly id="109164762" type="building" color="255,230,230" fill="1" layer="-1.00" shape="1744.783652,462.037945 1747.069272,460.674571 1750.250960,458.870495 1747.671465,454.555339 1742.241251,457.789199 1744.783652,462.037945"/>
    <poly id="109164770" type="building" color="255,230,230" fill="1" layer="-1.00" shape="1690.647053,426.105020 1691.145438,434.494502 1700.582865,433.930123 1700.465241,432.018909 1704.485813,431.775641 1704.090444,425.297488 1702.409117,425.399824 1690.647053,426.105020"/>
    <poly id="109164773" type="building" color="255,230,230" fill="1" layer="-1.00" shape="1749.692478,477.829696 1748.444932,475.460556 1751.074000,474.061098 1750.309419,472.644189 1747.862471,473.953260 1746.006661,470.510599 1747.412168,469.754559 1745.415282,466.046210 1743.776728,466.926395 1741.943915,463.616958 1736.700668,466.449117 1740.251057,473.291249 1744.266766,480.707770 1749.692478,477.829696"/>
    <poly id="109164774" type="building" color="255,230,230" fill="1" layer="-1.00" shape="1720.351952,423.867211 1717.414275,415.908494 1722.499785,411.632344 1725.133578,420.004818 1720.351952,423.867211"/>
    <poly id="109164781" type="building" color="255,230,230" fill="1" layer="-1.00" shape="1737.876411,416.634885 1732.175346,420.760284 1729.421011,416.535466 1725.133578,420.004818 1720.351952,423.867211 1722.478846,430.120345 1723.871952,434.233713 1729.033415,430.312712 1739.799900,422.144795 1741.311664,420.954339 1737.876411,416.634885"/>
    <poly id="109164784" type="building" color="255,230,230" fill="1" layer="-1.00" shape="1727.244136,468.280944 1724.075642,462.558612 1722.355583,463.306046 1716.484478,466.276632 1715.209549,466.898234 1715.337769,467.386367 1718.187768,473.522567 1720.349674,472.237987 1727.244136,468.280944"/>
    <poly id="109164793" type="building" color="255,230,230" fill="1" layer="-1.00" shape="1740.239869,482.907680 1743.298549,488.619779 1747.340601,486.486453 1744.266766,480.707770 1740.251057,473.291249 1737.818561,474.577975 1737.788192,475.356418 1736.703050,475.932035 1740.239869,482.907680"/>
    <poly id="109164801" type="building" color="255,230,230" fill="1" layer="-1.00" shape="1729.478768,463.271541 1732.206413,470.576024 1729.277864,472.022345 1729.901198,473.151330 1726.972917,474.631002 1728.757466,478.307685 1731.437896,476.930042 1735.293434,484.436770 1739.123671,482.338476 1739.693863,483.223308 1740.239869,482.907680 1736.703050,475.932035 1737.788192,475.356418 1737.818561,474.577975 1740.251057,473.291249 1736.700668,466.449117 1735.695704,466.990744 1733.931325,463.091555 1729.478768,463.271541"/>
    <poly id="109164805" type="building" color="255,230,230" fill="1" layer="-1.00" shape="1729.033415,430.312712 1739.529950,444.270090 1729.224999,451.611662 1724.855571,437.438737 1723.871952,434.233713 1729.033415,430.312712"/>